    3
Nonperiodic system
O       0.000000    -0.000000     0.582650    10.376651
O       0.000000     1.029479    -0.291325    11.785586
O       0.000000    -1.029479    -0.291325    11.785586
  
Same information as above printed with atom number.
   1 O      0.000000    -0.000000     0.582650    10.376651
   2 O      0.000000     1.029479    -0.291325    11.785586
   3 O      0.000000    -1.029479    -0.291325    11.785586
