    3
 nonperiodic system
O       0.000000     -0.000000      0.582650       2.379812
O       0.000000      1.029479     -0.291325       1.364439
O       0.000000     -1.029479     -0.291325       1.364439
    
 Chargemol version 3.5 September 26, 2017.
 See ddec.sourceforge.net for latest version.
    
    
 The sum of bond orders (SBO) for each atom in the unit cell are listed above.
 All bond orders greater than     0.001000 are printed below.
  
  
 ===================================================================================
 Printing BOs for ATOM #      1 ( O  ) in the reference unit cell.
  
 Bonded to the (  0,   0,   0) translated image of atom number     2 ( O  ) with bond order =     1.1899    The average spin polarization of this bonding =     0.0885
 Bonded to the (  0,   0,   0) translated image of atom number     3 ( O  ) with bond order =     1.1899    The average spin polarization of this bonding =     0.0885
 The sum of bond orders for this atom is SBO =        2.379812
  
  
 ===================================================================================
 Printing BOs for ATOM #      2 ( O  ) in the reference unit cell.
  
 Bonded to the (  0,   0,   0) translated image of atom number     1 ( O  ) with bond order =     1.1899    The average spin polarization of this bonding =     0.0885
 Bonded to the (  0,   0,   0) translated image of atom number     3 ( O  ) with bond order =     0.1745    The average spin polarization of this bonding =     0.0958
 The sum of bond orders for this atom is SBO =        1.364439
  
  
 ===================================================================================
 Printing BOs for ATOM #      3 ( O  ) in the reference unit cell.
  
 Bonded to the (  0,   0,   0) translated image of atom number     1 ( O  ) with bond order =     1.1899    The average spin polarization of this bonding =     0.0885
 Bonded to the (  0,   0,   0) translated image of atom number     2 ( O  ) with bond order =     0.1745    The average spin polarization of this bonding =     0.0958
 The sum of bond orders for this atom is SBO =        1.364439
    
 2017/10/01  14:04:08
