    3
Nonperiodic system
O       0.000000    -0.000000     0.582650    43.611465
O       0.000000     1.029479    -0.291325    55.023901
O       0.000000    -1.029479    -0.291325    55.023902
  
Same information as above printed with atom number.
   1 O      0.000000    -0.000000     0.582650    43.611465
   2 O      0.000000     1.029479    -0.291325    55.023901
   3 O      0.000000    -1.029479    -0.291325    55.023902
