    2
jmolscript: load "" {1 1 1} spacegroup "x,y,z" unitcell [{      0.000000     2.829447     2.829447 }, {      2.829447     0.000000     2.829447 }, {      2.829447     2.829447     0.000000 }]
Na      0.000000     0.000000     0.000000    18.373969
Cl      2.829447     2.829447     2.829447   310.652359
  
Same information as above printed with atom number.
   1 Na     0.000000     0.000000     0.000000    18.373969
   2 Cl     2.829447     2.829447     2.829447   310.652359
