  277
jmolscript: load "" {1 1 1} spacegroup "x,y,z" unitcell [{     16.990019     0.000000     0.000000 }, {      0.000000    16.990019     0.000000 }, {      0.000000     0.000000    16.990019 }]
C       6.397711     0.031575    10.572326    24.564754
C      10.584256     6.372624     0.037404    25.120690
C       0.044021    10.595854     6.393839    24.999080
C      10.582760    -0.016915    10.599730    24.558106
C       6.374625     6.391570    16.885351    25.109294
C      16.887581     6.378555     6.388862    25.047275
C       6.382739    16.881847     6.383365    25.101269
C      10.591708    10.593617    16.907683    24.741284
C      16.860847    10.600998    10.595159    24.918830
C       6.377817    10.596573     0.103646    24.893640
C       0.096952     6.381938    10.601894    25.063713
C      10.590368     0.114593     6.383132    25.035270
C      14.879131     8.571169     2.091225    25.166578
C       2.083512    14.880549     8.567777    24.799143
C       8.519776     2.075870    14.906245    25.020013
C       2.091333     8.397169     2.112043    25.125932
C      14.866570    14.903897     8.416712    24.706513
C       8.396003    14.871789    14.886806    24.855635
C      14.875754     8.391087    14.875970    25.171060
C       2.112848     2.085454     8.410878    24.711690
C       8.392206     2.118016     2.097705    24.865620
C      14.888077     2.116328     8.591637    25.028185
C       8.563786    14.884259     2.104024    24.935994
C       2.093917     8.583513    14.881946    24.791052
C       6.328016    15.117242    11.672583    28.624880
C      11.622745     6.320885    15.090463    28.772421
C      15.108847    11.652456     6.294554    29.007469
C      15.116103    10.668089     5.320131    28.635262
C       5.337014    15.099652    10.704553    28.844203
C      10.637656     5.346494    15.082521    28.525509
C      10.783590     1.837203    11.792255    28.955653
C       5.325045     6.313716     1.826776    28.625380
C       1.828506     5.329909     6.303704    27.901595
C       6.299560     1.827853     5.343590    28.021238
C      11.665435    10.664673     1.834800    28.852773
C       1.792115    11.669174    10.663947    28.811854
C       1.821457     6.309693     5.325168    28.777480
C       5.323875     1.818196     6.326154    28.430843
C       6.309949     5.340540     1.826338    28.101566
C       6.306485    11.652541    15.165593    28.038742
C      15.152324     6.307700    11.644866    28.373897
C      11.646668    15.175185     6.323132    28.400450
C      15.161052     5.322986    10.671240    28.906534
C       1.802204    10.691362    11.644062    27.733375
C      11.789607     1.805960    10.784185    28.909907
C      10.692852    11.650328     1.842401    28.108174
C      10.677566    15.172728     5.334573    27.840216
C       5.322009    10.678799    15.166451    28.463239
C      14.792269     6.647938     3.153628    28.222483
C       3.146377    14.792192     6.645602    28.240085
C       6.608149     3.153376    14.778953    28.907620
C       6.625751     2.176636    13.797509    28.386343
C      13.815879     6.648541     2.171808    28.859478
C       2.160034    13.820294     6.643534    28.722128
C       2.186422    10.313448     3.187635    27.755598
C      13.808550    14.821916    10.342314    28.408620
C      10.317247    13.804870    14.805447    27.797438
C      14.802687    10.322250    13.826720    27.965267
C       3.182465     2.171569    10.330346    27.701178
C      10.320210     3.172230     2.171529    28.628861
C      10.317719    14.780247    13.822574    28.474281
C      13.822411    10.319795    14.804770    28.607774
C      14.785559    13.839939    10.338279    28.119841
C      14.814897     3.177639     6.667882    28.760465
C       6.641179    14.809736     3.166460    28.641095
C       3.153533     6.658756    14.798532    27.873561
C       6.638391    13.827487     2.190138    27.992947
C      10.321048     2.193503     3.151669    28.134667
C       3.165499    10.313404     2.208569    28.621716
C       2.207256     3.154736    10.330145    28.669253
C       2.182104     6.665190    13.812080    27.724617
C      13.829129     2.205728     6.665459    28.768407
H       6.618953    14.344239    12.403631     3.577895
H      12.335826     6.613735    14.302767     3.622234
H      14.320766    12.373611     6.563850     3.691176
H      14.336843    10.380842     4.595363     3.683190
H       4.605622    14.313297    10.457574     3.647890
H      10.333938     4.659288    14.274912     5.875567
H      10.869439     2.338932    12.775011     3.989084
H       4.603929     6.594268     2.611008     3.673785
H       2.614282     4.609015     6.580331     5.627036
H       6.573325     2.615958     4.623861     5.106278
H      12.393705    10.380946     2.611279     3.710267
H       2.569298    12.395104    10.376469     3.740796
H       2.600336     6.597460     4.601149     3.695986
H       4.600341     2.597206     6.614283     3.559099
H       6.595776     4.618612     2.607991     5.553246
H       6.591725    12.373685    14.383216     5.706145
H      14.364936     6.589315    12.362343     5.227201
H      12.368499    14.394338     6.612633     3.635600
H      14.378471     4.603017    10.383695     3.792101
H       2.589589    10.420545    12.365752     5.846338
H      12.573269     2.549499    10.568697     3.915965
H      10.428558    12.376636     2.627701     5.258916
H      10.401355    14.386804     4.613462     5.738903
H       4.598661    10.400766    14.383499     3.530426
H      15.066043     5.864678     3.878634     5.231520
H       3.874906    15.062665     5.864482     5.233590
H       5.824158     3.884567    15.036378     3.622007
H       5.861962     1.910708    13.050558     4.783628
H      13.090553     5.867891     1.892293     3.712447
H       1.879464    13.099535     5.858976     3.553805
H       1.919608    11.089790     3.922129     5.969250
H      13.088204    15.101476    11.127910     3.618993
H      11.098003    13.079194    15.084114     6.079158
H      15.086969    11.106610    13.107110     5.598776
H       3.910483     1.894833    11.109556     5.807531
H      11.103475     3.894695     1.892003     3.677874
H      11.098656    15.046224    13.092428     3.616206
H      13.101733    11.102484    15.090584     3.535836
H      15.058931    13.110480    11.117117     5.307606
H      15.099818     3.900991     5.887955     3.619684
H       5.860953    15.085858     3.894003     3.604228
H       3.879440     5.876784    15.072763     5.398677
H       5.856086    13.100782     1.918085     5.489002
H      11.102447     1.915452     3.877264     5.648388
H       3.899255    11.090398     1.941895     3.574962
H       1.942011     3.887897    11.108303     3.560716
H       1.909346     5.887733    13.081076     5.990720
H      13.097133     1.940935     5.886158     3.586461
C       6.865266     1.361407    10.062812    33.104246
C      10.124895     6.846448     1.386524    33.280487
C       1.389044    10.132562     6.873078    33.162446
C      10.066748    15.669236    10.072146    31.481510
C       6.839358     6.859791    15.535569    33.023417
C      15.542710     6.851022     6.862196    32.620571
C       6.854995    15.532296     6.844710    33.085976
C      10.114837    10.128895    15.562228    31.643516
C      15.514029    10.126775    10.129677    32.999109
C       6.853252    10.127188     1.449302    32.453011
C       1.444836     6.853767    10.136529    33.006089
C      10.122154     1.465026     6.842705    33.451913
C      15.354702     9.916886     1.624681    32.545123
C       1.621603    15.353190     9.915967    31.532214
C       9.845966     1.594144    15.417906    31.518295
C       1.620371     7.053580     1.632881    32.690384
C      15.335875    15.380998     7.072571    31.475761
C       7.049896    15.346087    15.354176    32.379814
C      15.343581     7.041538    15.340958    33.142604
C       1.634878     1.614595     7.067911    31.502958
C       7.043313     1.646542     1.634436    32.309131
C      15.363760     1.637523     9.933476    32.506373
C       9.907036    15.355484     1.628334    32.776204
C       1.624947     9.927676    15.358318    31.735107
H       6.018043     1.982213     9.696513     3.731184
H       9.680073     6.019080     1.981223     3.759679
H       1.978893     9.681279     6.045553     3.703166
H       1.975825    10.970824     7.309132     3.772099
H       7.418221     1.940098    10.841046     6.328069
H      10.964912     7.289257     1.965755     3.818829
H      10.883904    15.062908     9.623832     5.641772
H       7.256240     6.022114    14.934092     3.784628
H      14.958882     7.301182     6.029129     5.214358
H       6.020898    14.936274     7.276163     3.718079
H       9.670745    10.966013    14.980391     3.566096
H      14.928245     9.683499    10.964806     3.662969
H      14.949212     6.019633     7.302107     3.693431
H       7.308563    14.953878     6.010484     3.738452
H       6.008899     7.323736    14.960930     3.729676
H       6.022060     9.685541     2.042163     3.703254
H       2.037848     6.019631     9.700687     3.779446
H       9.671195     2.042731     6.007238     3.691771
H       2.027678     7.301497    10.971372     3.678935
H      14.924546    10.959612     9.686928     3.697777
H       9.593840    15.075683    10.883886     5.554291
H      10.947505     9.688201    14.971377     5.001569
H      10.958035     2.061808     7.270055     3.935010
H       7.301342    10.961210     2.033452     5.187202
H      14.522455    10.507238     1.182471     3.719110
H       1.183456    14.520944    10.509398     3.603589
H      10.387904     1.014027    14.640087     5.221285
H      10.487491     2.440531    15.749993     5.259486
H      15.798450    10.499148     2.461784     5.400385
H       2.462312    15.797510    10.492476     5.395463
H       2.456194     6.471073     1.186310     5.199417
H      15.794725    14.554570     6.487572     4.820389
H       6.462998    15.784443    14.517182     5.381238
H      14.505841     6.446926    15.767000     3.749305
H       1.174390     2.447758     6.493440     5.398975
H       6.463881     1.200630     2.472569     5.338270
H       6.461679    14.514135    15.799830     3.625074
H      15.801001     6.463559    14.508312     3.703828
H      14.496962    15.807406     6.480561     5.655284
H      14.536259     1.180122    10.519119     5.368598
H      10.498344    14.520138     1.193214     3.672934
H       1.191697    10.523432    14.524898     5.062726
H      10.489001    15.810593     2.459395     3.680746
H       6.449500     2.478619     1.196291     3.646628
H       1.178670     6.459503     2.463075     3.699669
H       2.468391     1.187746     6.467616     5.233414
H       2.459965    10.505412    15.812115     5.381855
H      15.802380     2.468884    10.527672     3.708830
H       7.564884     1.231954     9.202878     5.218275
H       9.343307     7.637267     1.284796     3.700172
H       1.285428     9.355575     7.667665     3.731360
H       9.294615    15.823324     9.280263     3.609721
H       7.643290     7.628199    15.632425     3.586261
H      15.648295     7.633465     7.651100     3.683883
H       7.633817    15.632127     7.638145     3.705108
H       9.329680     9.342277    15.663196     5.638557
H      15.613460     9.340610     9.343437     3.716484
H       7.636290     9.339017     1.343574     3.626406
H       1.345889     7.636187     9.346946     3.720129
H       9.345083     1.376191     7.639166     3.845432
H      16.141393     9.815370     0.839545     3.662555
H       0.836002    16.140438     9.820988     5.739039
H       9.719174     0.918799    16.297339     4.649460
H       0.834593     7.158466     0.847075     3.682874
H      16.106715    16.182068     7.177640     4.646204
H       7.150273    16.135763    16.136115     3.645296
H      16.118085     7.142043    16.138382     3.743755
H       0.861126     0.816709     7.173085     3.620317
H       7.140514     0.861284     0.847472     3.707019
H      16.153718     0.857334     9.821579     3.495099
H       9.800069    16.132781     0.834372     3.652573
H       0.832505     9.823103    16.137428     3.620280
N       6.996399    16.337184    11.588296    29.408825
N      11.589905     6.966697    16.323632    29.722017
N      16.324120    11.606848     6.971600    29.706884
N      16.336885    10.002661     5.383673    29.449596
N       5.380311    16.306491    10.012124    29.497751
N       9.985119     5.377091    16.313004    29.521401
N      10.069656     0.620861    11.680375    29.863101
N       5.366978     6.976180     0.603711    29.661768
N       0.609127     5.372651     6.973241    29.434342
N       6.966541     0.606371     5.379326    29.517714
N      11.601117     9.998547     0.614217    29.723770
N       0.567737    11.612610    10.004192    29.721583
N       0.597424     6.969810     5.379345    29.755157
N       5.376647     0.590898     6.980617    29.606874
N       6.969805     5.389350     0.601875    29.663971
N       6.970998    11.600279    16.387298    29.365773
N      16.372793     6.974761    11.600377    29.576314
N      11.592966    16.400192     6.982895    29.693796
N      16.387475     5.369889    10.014978    29.900013
N       0.584203    10.018693    11.600774    29.370179
N      11.624938     0.673437    10.026041    29.464229
N      10.014978    11.605644     0.627367    29.339399
N      10.012113    16.394827     5.373082    29.410919
N       5.367106    10.013429    16.388091    29.669907
N      15.462526     7.866342     3.102477    29.547474
N       3.098249    15.459605     7.865308    29.494250
N       7.811301     3.090471    15.476071    29.816007
N       7.836657     1.495939    13.880405    29.875760
N      13.869976     7.867370     1.502568    29.860241
N       1.489721    13.875807     7.862232    29.722196
N       1.510018     9.098568     3.126864    29.564775
N      13.859374    15.492235     9.123656    29.564106
N       9.098914    13.862398    15.475651    29.424777
N      15.465336     9.099251    13.871163    29.469599
N       3.122931     1.498155     9.113639    29.222686
N       9.097716     3.124725     1.507165    29.581323
N       9.100482    15.454354    13.874552    29.603832
N      13.868797     9.096039    15.465591    29.790772
N      15.451660    13.892233     9.117771    29.497226
N      15.480318     3.121438     7.888123    29.724788
N       7.862608    15.474790     3.112871    29.566386
N       3.097961     7.875436    15.472245    29.524178
N       7.857802    13.874777     1.520693    29.382638
N       9.098252     1.529268     3.105269    29.491357
N       3.104735     9.099709     1.530175    29.762290
N       1.533258     3.100778     9.113261    29.667524
N       1.514820     7.885502    13.864268    29.320015
N      13.876101     1.536421     7.885179    29.619973
Zn      8.485410    -0.001990    12.748550    47.297160
Zn     12.723567     8.473475    -0.017046    47.894539
Zn     -0.033438    12.745664     8.481529    47.839505
Zn     -0.020046     8.488681     4.248050    47.607086
Zn      4.249336    -0.032506     8.502773    47.482006
Zn      8.472180     4.243373    -0.028750    47.603256
Zn      4.228743     8.492552     0.000514    47.714243
Zn      0.019810     4.241318     8.499892    47.676503
Zn      8.484948     0.007337     4.238419    47.679023
Zn      8.488708    12.733198     0.013399    47.618089
Zn     -0.007523     8.493462    12.735002    47.557383
Zn     12.742000     0.022207     8.483679    47.388647
Au      9.554585     3.609142    11.014574   122.660547
  
Same information as above printed with atom number.
   1 C      6.397711     0.031575    10.572326    24.564754
   2 C     10.584256     6.372624     0.037404    25.120690
   3 C      0.044021    10.595854     6.393839    24.999080
   4 C     10.582760    -0.016915    10.599730    24.558106
   5 C      6.374625     6.391570    16.885351    25.109294
   6 C     16.887581     6.378555     6.388862    25.047275
   7 C      6.382739    16.881847     6.383365    25.101269
   8 C     10.591708    10.593617    16.907683    24.741284
   9 C     16.860847    10.600998    10.595159    24.918830
  10 C      6.377817    10.596573     0.103646    24.893640
  11 C      0.096952     6.381938    10.601894    25.063713
  12 C     10.590368     0.114593     6.383132    25.035270
  13 C     14.879131     8.571169     2.091225    25.166578
  14 C      2.083512    14.880549     8.567777    24.799143
  15 C      8.519776     2.075870    14.906245    25.020013
  16 C      2.091333     8.397169     2.112043    25.125932
  17 C     14.866570    14.903897     8.416712    24.706513
  18 C      8.396003    14.871789    14.886806    24.855635
  19 C     14.875754     8.391087    14.875970    25.171060
  20 C      2.112848     2.085454     8.410878    24.711690
  21 C      8.392206     2.118016     2.097705    24.865620
  22 C     14.888077     2.116328     8.591637    25.028185
  23 C      8.563786    14.884259     2.104024    24.935994
  24 C      2.093917     8.583513    14.881946    24.791052
  25 C      6.328016    15.117242    11.672583    28.624880
  26 C     11.622745     6.320885    15.090463    28.772421
  27 C     15.108847    11.652456     6.294554    29.007469
  28 C     15.116103    10.668089     5.320131    28.635262
  29 C      5.337014    15.099652    10.704553    28.844203
  30 C     10.637656     5.346494    15.082521    28.525509
  31 C     10.783590     1.837203    11.792255    28.955653
  32 C      5.325045     6.313716     1.826776    28.625380
  33 C      1.828506     5.329909     6.303704    27.901595
  34 C      6.299560     1.827853     5.343590    28.021238
  35 C     11.665435    10.664673     1.834800    28.852773
  36 C      1.792115    11.669174    10.663947    28.811854
  37 C      1.821457     6.309693     5.325168    28.777480
  38 C      5.323875     1.818196     6.326154    28.430843
  39 C      6.309949     5.340540     1.826338    28.101566
  40 C      6.306485    11.652541    15.165593    28.038742
  41 C     15.152324     6.307700    11.644866    28.373897
  42 C     11.646668    15.175185     6.323132    28.400450
  43 C     15.161052     5.322986    10.671240    28.906534
  44 C      1.802204    10.691362    11.644062    27.733375
  45 C     11.789607     1.805960    10.784185    28.909907
  46 C     10.692852    11.650328     1.842401    28.108174
  47 C     10.677566    15.172728     5.334573    27.840216
  48 C      5.322009    10.678799    15.166451    28.463239
  49 C     14.792269     6.647938     3.153628    28.222483
  50 C      3.146377    14.792192     6.645602    28.240085
  51 C      6.608149     3.153376    14.778953    28.907620
  52 C      6.625751     2.176636    13.797509    28.386343
  53 C     13.815879     6.648541     2.171808    28.859478
  54 C      2.160034    13.820294     6.643534    28.722128
  55 C      2.186422    10.313448     3.187635    27.755598
  56 C     13.808550    14.821916    10.342314    28.408620
  57 C     10.317247    13.804870    14.805447    27.797438
  58 C     14.802687    10.322250    13.826720    27.965267
  59 C      3.182465     2.171569    10.330346    27.701178
  60 C     10.320210     3.172230     2.171529    28.628861
  61 C     10.317719    14.780247    13.822574    28.474281
  62 C     13.822411    10.319795    14.804770    28.607774
  63 C     14.785559    13.839939    10.338279    28.119841
  64 C     14.814897     3.177639     6.667882    28.760465
  65 C      6.641179    14.809736     3.166460    28.641095
  66 C      3.153533     6.658756    14.798532    27.873561
  67 C      6.638391    13.827487     2.190138    27.992947
  68 C     10.321048     2.193503     3.151669    28.134667
  69 C      3.165499    10.313404     2.208569    28.621716
  70 C      2.207256     3.154736    10.330145    28.669253
  71 C      2.182104     6.665190    13.812080    27.724617
  72 C     13.829129     2.205728     6.665459    28.768407
  73 H      6.618953    14.344239    12.403631     3.577895
  74 H     12.335826     6.613735    14.302767     3.622234
  75 H     14.320766    12.373611     6.563850     3.691176
  76 H     14.336843    10.380842     4.595363     3.683190
  77 H      4.605622    14.313297    10.457574     3.647890
  78 H     10.333938     4.659288    14.274912     5.875567
  79 H     10.869439     2.338932    12.775011     3.989084
  80 H      4.603929     6.594268     2.611008     3.673785
  81 H      2.614282     4.609015     6.580331     5.627036
  82 H      6.573325     2.615958     4.623861     5.106278
  83 H     12.393705    10.380946     2.611279     3.710267
  84 H      2.569298    12.395104    10.376469     3.740796
  85 H      2.600336     6.597460     4.601149     3.695986
  86 H      4.600341     2.597206     6.614283     3.559099
  87 H      6.595776     4.618612     2.607991     5.553246
  88 H      6.591725    12.373685    14.383216     5.706145
  89 H     14.364936     6.589315    12.362343     5.227201
  90 H     12.368499    14.394338     6.612633     3.635600
  91 H     14.378471     4.603017    10.383695     3.792101
  92 H      2.589589    10.420545    12.365752     5.846338
  93 H     12.573269     2.549499    10.568697     3.915965
  94 H     10.428558    12.376636     2.627701     5.258916
  95 H     10.401355    14.386804     4.613462     5.738903
  96 H      4.598661    10.400766    14.383499     3.530426
  97 H     15.066043     5.864678     3.878634     5.231520
  98 H      3.874906    15.062665     5.864482     5.233590
  99 H      5.824158     3.884567    15.036378     3.622007
 100 H      5.861962     1.910708    13.050558     4.783628
 101 H     13.090553     5.867891     1.892293     3.712447
 102 H      1.879464    13.099535     5.858976     3.553805
 103 H      1.919608    11.089790     3.922129     5.969250
 104 H     13.088204    15.101476    11.127910     3.618993
 105 H     11.098003    13.079194    15.084114     6.079158
 106 H     15.086969    11.106610    13.107110     5.598776
 107 H      3.910483     1.894833    11.109556     5.807531
 108 H     11.103475     3.894695     1.892003     3.677874
 109 H     11.098656    15.046224    13.092428     3.616206
 110 H     13.101733    11.102484    15.090584     3.535836
 111 H     15.058931    13.110480    11.117117     5.307606
 112 H     15.099818     3.900991     5.887955     3.619684
 113 H      5.860953    15.085858     3.894003     3.604228
 114 H      3.879440     5.876784    15.072763     5.398677
 115 H      5.856086    13.100782     1.918085     5.489002
 116 H     11.102447     1.915452     3.877264     5.648388
 117 H      3.899255    11.090398     1.941895     3.574962
 118 H      1.942011     3.887897    11.108303     3.560716
 119 H      1.909346     5.887733    13.081076     5.990720
 120 H     13.097133     1.940935     5.886158     3.586461
 121 C      6.865266     1.361407    10.062812    33.104246
 122 C     10.124895     6.846448     1.386524    33.280487
 123 C      1.389044    10.132562     6.873078    33.162446
 124 C     10.066748    15.669236    10.072146    31.481510
 125 C      6.839358     6.859791    15.535569    33.023417
 126 C     15.542710     6.851022     6.862196    32.620571
 127 C      6.854995    15.532296     6.844710    33.085976
 128 C     10.114837    10.128895    15.562228    31.643516
 129 C     15.514029    10.126775    10.129677    32.999109
 130 C      6.853252    10.127188     1.449302    32.453011
 131 C      1.444836     6.853767    10.136529    33.006089
 132 C     10.122154     1.465026     6.842705    33.451913
 133 C     15.354702     9.916886     1.624681    32.545123
 134 C      1.621603    15.353190     9.915967    31.532214
 135 C      9.845966     1.594144    15.417906    31.518295
 136 C      1.620371     7.053580     1.632881    32.690384
 137 C     15.335875    15.380998     7.072571    31.475761
 138 C      7.049896    15.346087    15.354176    32.379814
 139 C     15.343581     7.041538    15.340958    33.142604
 140 C      1.634878     1.614595     7.067911    31.502958
 141 C      7.043313     1.646542     1.634436    32.309131
 142 C     15.363760     1.637523     9.933476    32.506373
 143 C      9.907036    15.355484     1.628334    32.776204
 144 C      1.624947     9.927676    15.358318    31.735107
 145 H      6.018043     1.982213     9.696513     3.731184
 146 H      9.680073     6.019080     1.981223     3.759679
 147 H      1.978893     9.681279     6.045553     3.703166
 148 H      1.975825    10.970824     7.309132     3.772099
 149 H      7.418221     1.940098    10.841046     6.328069
 150 H     10.964912     7.289257     1.965755     3.818829
 151 H     10.883904    15.062908     9.623832     5.641772
 152 H      7.256240     6.022114    14.934092     3.784628
 153 H     14.958882     7.301182     6.029129     5.214358
 154 H      6.020898    14.936274     7.276163     3.718079
 155 H      9.670745    10.966013    14.980391     3.566096
 156 H     14.928245     9.683499    10.964806     3.662969
 157 H     14.949212     6.019633     7.302107     3.693431
 158 H      7.308563    14.953878     6.010484     3.738452
 159 H      6.008899     7.323736    14.960930     3.729676
 160 H      6.022060     9.685541     2.042163     3.703254
 161 H      2.037848     6.019631     9.700687     3.779446
 162 H      9.671195     2.042731     6.007238     3.691771
 163 H      2.027678     7.301497    10.971372     3.678935
 164 H     14.924546    10.959612     9.686928     3.697777
 165 H      9.593840    15.075683    10.883886     5.554291
 166 H     10.947505     9.688201    14.971377     5.001569
 167 H     10.958035     2.061808     7.270055     3.935010
 168 H      7.301342    10.961210     2.033452     5.187202
 169 H     14.522455    10.507238     1.182471     3.719110
 170 H      1.183456    14.520944    10.509398     3.603589
 171 H     10.387904     1.014027    14.640087     5.221285
 172 H     10.487491     2.440531    15.749993     5.259486
 173 H     15.798450    10.499148     2.461784     5.400385
 174 H      2.462312    15.797510    10.492476     5.395463
 175 H      2.456194     6.471073     1.186310     5.199417
 176 H     15.794725    14.554570     6.487572     4.820389
 177 H      6.462998    15.784443    14.517182     5.381238
 178 H     14.505841     6.446926    15.767000     3.749305
 179 H      1.174390     2.447758     6.493440     5.398975
 180 H      6.463881     1.200630     2.472569     5.338270
 181 H      6.461679    14.514135    15.799830     3.625074
 182 H     15.801001     6.463559    14.508312     3.703828
 183 H     14.496962    15.807406     6.480561     5.655284
 184 H     14.536259     1.180122    10.519119     5.368598
 185 H     10.498344    14.520138     1.193214     3.672934
 186 H      1.191697    10.523432    14.524898     5.062726
 187 H     10.489001    15.810593     2.459395     3.680746
 188 H      6.449500     2.478619     1.196291     3.646628
 189 H      1.178670     6.459503     2.463075     3.699669
 190 H      2.468391     1.187746     6.467616     5.233414
 191 H      2.459965    10.505412    15.812115     5.381855
 192 H     15.802380     2.468884    10.527672     3.708830
 193 H      7.564884     1.231954     9.202878     5.218275
 194 H      9.343307     7.637267     1.284796     3.700172
 195 H      1.285428     9.355575     7.667665     3.731360
 196 H      9.294615    15.823324     9.280263     3.609721
 197 H      7.643290     7.628199    15.632425     3.586261
 198 H     15.648295     7.633465     7.651100     3.683883
 199 H      7.633817    15.632127     7.638145     3.705108
 200 H      9.329680     9.342277    15.663196     5.638557
 201 H     15.613460     9.340610     9.343437     3.716484
 202 H      7.636290     9.339017     1.343574     3.626406
 203 H      1.345889     7.636187     9.346946     3.720129
 204 H      9.345083     1.376191     7.639166     3.845432
 205 H     16.141393     9.815370     0.839545     3.662555
 206 H      0.836002    16.140438     9.820988     5.739039
 207 H      9.719174     0.918799    16.297339     4.649460
 208 H      0.834593     7.158466     0.847075     3.682874
 209 H     16.106715    16.182068     7.177640     4.646204
 210 H      7.150273    16.135763    16.136115     3.645296
 211 H     16.118085     7.142043    16.138382     3.743755
 212 H      0.861126     0.816709     7.173085     3.620317
 213 H      7.140514     0.861284     0.847472     3.707019
 214 H     16.153718     0.857334     9.821579     3.495099
 215 H      9.800069    16.132781     0.834372     3.652573
 216 H      0.832505     9.823103    16.137428     3.620280
 217 N      6.996399    16.337184    11.588296    29.408825
 218 N     11.589905     6.966697    16.323632    29.722017
 219 N     16.324120    11.606848     6.971600    29.706884
 220 N     16.336885    10.002661     5.383673    29.449596
 221 N      5.380311    16.306491    10.012124    29.497751
 222 N      9.985119     5.377091    16.313004    29.521401
 223 N     10.069656     0.620861    11.680375    29.863101
 224 N      5.366978     6.976180     0.603711    29.661768
 225 N      0.609127     5.372651     6.973241    29.434342
 226 N      6.966541     0.606371     5.379326    29.517714
 227 N     11.601117     9.998547     0.614217    29.723770
 228 N      0.567737    11.612610    10.004192    29.721583
 229 N      0.597424     6.969810     5.379345    29.755157
 230 N      5.376647     0.590898     6.980617    29.606874
 231 N      6.969805     5.389350     0.601875    29.663971
 232 N      6.970998    11.600279    16.387298    29.365773
 233 N     16.372793     6.974761    11.600377    29.576314
 234 N     11.592966    16.400192     6.982895    29.693796
 235 N     16.387475     5.369889    10.014978    29.900013
 236 N      0.584203    10.018693    11.600774    29.370179
 237 N     11.624938     0.673437    10.026041    29.464229
 238 N     10.014978    11.605644     0.627367    29.339399
 239 N     10.012113    16.394827     5.373082    29.410919
 240 N      5.367106    10.013429    16.388091    29.669907
 241 N     15.462526     7.866342     3.102477    29.547474
 242 N      3.098249    15.459605     7.865308    29.494250
 243 N      7.811301     3.090471    15.476071    29.816007
 244 N      7.836657     1.495939    13.880405    29.875760
 245 N     13.869976     7.867370     1.502568    29.860241
 246 N      1.489721    13.875807     7.862232    29.722196
 247 N      1.510018     9.098568     3.126864    29.564775
 248 N     13.859374    15.492235     9.123656    29.564106
 249 N      9.098914    13.862398    15.475651    29.424777
 250 N     15.465336     9.099251    13.871163    29.469599
 251 N      3.122931     1.498155     9.113639    29.222686
 252 N      9.097716     3.124725     1.507165    29.581323
 253 N      9.100482    15.454354    13.874552    29.603832
 254 N     13.868797     9.096039    15.465591    29.790772
 255 N     15.451660    13.892233     9.117771    29.497226
 256 N     15.480318     3.121438     7.888123    29.724788
 257 N      7.862608    15.474790     3.112871    29.566386
 258 N      3.097961     7.875436    15.472245    29.524178
 259 N      7.857802    13.874777     1.520693    29.382638
 260 N      9.098252     1.529268     3.105269    29.491357
 261 N      3.104735     9.099709     1.530175    29.762290
 262 N      1.533258     3.100778     9.113261    29.667524
 263 N      1.514820     7.885502    13.864268    29.320015
 264 N     13.876101     1.536421     7.885179    29.619973
 265 Zn     8.485410    -0.001990    12.748550    47.297160
 266 Zn    12.723567     8.473475    -0.017046    47.894539
 267 Zn    -0.033438    12.745664     8.481529    47.839505
 268 Zn    -0.020046     8.488681     4.248050    47.607086
 269 Zn     4.249336    -0.032506     8.502773    47.482006
 270 Zn     8.472180     4.243373    -0.028750    47.603256
 271 Zn     4.228743     8.492552     0.000514    47.714243
 272 Zn     0.019810     4.241318     8.499892    47.676503
 273 Zn     8.484948     0.007337     4.238419    47.679023
 274 Zn     8.488708    12.733198     0.013399    47.618089
 275 Zn    -0.007523     8.493462    12.735002    47.557383
 276 Zn    12.742000     0.022207     8.483679    47.388647
 277 Au     9.554585     3.609142    11.014574   122.660547
