    3
Nonperiodic system
O       0.000000    -0.000000     0.435357    18.701965
O       0.000000     1.096192    -0.217678    23.400688
O       0.000000    -1.096192    -0.217678    23.400688
  
Same information as above printed with atom number.
   1 O      0.000000    -0.000000     0.435357    18.701965
   2 O      0.000000     1.096192    -0.217678    23.400688
   3 O      0.000000    -1.096192    -0.217678    23.400688
