    3
jmolscript: load "" {1 1 1} spacegroup "x,y,z" unitcell [{     15.000016     0.000000     0.000000 }, {      0.000000    15.000016     0.000000 }, {      0.000000     0.000000    15.000016 }]
O      0.000000     1.031228     1.125381    -0.782270
H      0.000000     1.785070     0.512177     0.391128
H      0.000000     0.253722     0.542498     0.391142
 
 Chargemol version 3.5 September 26, 2017.
See ddec.sourceforge.net for latest version.
 
Computational parameters:
Reference_weighting =      0.214286
Number of radial integration shells =    100
Cutoff radius (pm) =    500
Error in the integrated total number of electrons before renormalization (e) =    1.2600E-04
Charge convergence tolerance =    1.0000E-05
Minimum radius for electron cloud penetration fitting (pm) =    200
Minimum decay exponent for electron density of buried atom tails =   1.7500
Number of iterations to convergence =     37
 
The following XYZ coordinates are in angstroms. The atomic dipoles and quadrupoles are in atomic units.
atom number, atomic symbol, x, y, z, net_charge, dipole_x, dipole_y, dipole_z, dipole_mag, Qxy, Qxz, Qyz,Q(x^2-y^2), Q(3z^2 - R^2), three eigenvalues of traceless quadrupole moment tensor
    1 O      0.000000     1.031228     1.125381    -0.782270     0.000000     0.002950     0.159152     0.159179     0.000000    -0.000000    -0.004552    -0.499945     0.017309    -0.252857     0.005684     0.247173
    2 H      0.000000     1.785070     0.512177     0.391128     0.000000     0.040046    -0.002208     0.040107    -0.000000    -0.000000    -0.007205    -0.060223     0.022637    -0.033885     0.005101     0.028783
    3 H      0.000000     0.253722     0.542498     0.391142    -0.000000    -0.039995    -0.000468     0.039998     0.000000     0.000000     0.006551    -0.061236     0.021153    -0.034144     0.005100     0.029044
 
The sperically averaged electron density of each atom fit to a function of the form exp(a - br) for r >=rmin_cloud_penetration
atom number,atomic symbol, x, y, z, a, b, Rsquared where a and b are in atomic units and Rsquared is the squared correlation coefficient
    1 O      0.000000     1.031228     1.125381    -2.362130     1.619114     0.978152
    2 H      0.000000     1.785070     0.512177    -4.565362     1.543197     0.981393
    3 H      0.000000     0.253722     0.542498    -4.349653     1.586589     0.986138
 
 2017/09/30  18:59:41
