    3
jmolscript: load "" {1 1 1} spacegroup "x,y,z" unitcell [{     15.000016     0.000000     0.000000 }, {      0.000000    15.000016     0.000000 }, {      0.000000     0.000000    15.000016 }]
O       0.000000     1.031228     1.125381    73.290284
H       0.000000     1.785070     0.512177     7.661109
H       0.000000     0.253722     0.542498     7.599276
  
Same information as above printed with atom number.
   1 O      0.000000     1.031228     1.125381    73.290284
   2 H      0.000000     1.785070     0.512177     7.661109
   3 H      0.000000     0.253722     0.542498     7.599276
