    3
Nonperiodic system
O       0.000000    -0.000000     0.579101    19.381043
O       0.000000     0.990774    -0.289550    23.103029
O       0.000000    -0.990774    -0.289550    23.103029
  
Same information as above printed with atom number.
   1 O      0.000000    -0.000000     0.579101    19.381043
   2 O      0.000000     0.990774    -0.289550    23.103029
   3 O      0.000000    -0.990774    -0.289550    23.103029
