    3
Nonperiodic system
O       0.000000    -0.000000     0.579101    19.117967
O       0.000000     0.990774    -0.289550    23.121959
O       0.000000    -0.990774    -0.289550    23.121959
  
Same information as above printed with atom number.
   1 O      0.000000    -0.000000     0.579101    19.117967
   2 O      0.000000     0.990774    -0.289550    23.121959
   3 O      0.000000    -0.990774    -0.289550    23.121959
