    3
Nonperiodic system
O       0.000000    -0.000000     0.579101    43.350006
O       0.000000     0.990774    -0.289550    55.904008
O       0.000000    -0.990774    -0.289550    55.904011
  
Same information as above printed with atom number.
   1 O      0.000000    -0.000000     0.579101    43.350006
   2 O      0.000000     0.990774    -0.289550    55.904008
   3 O      0.000000    -0.990774    -0.289550    55.904011
