    3
Nonperiodic system
O       0.000000    -0.000000     0.319088     9.119499
O       0.000000     1.135186    -0.159544     9.783447
O       0.000000    -1.135186    -0.159544     9.783447
  
Same information as above printed with atom number.
   1 O      0.000000    -0.000000     0.319088     9.119499
   2 O      0.000000     1.135186    -0.159544     9.783447
   3 O      0.000000    -1.135186    -0.159544     9.783447
