    3
Nonperiodic system
O       0.000000    -0.000000     0.582650    44.704566
O       0.000000     1.029479    -0.291325    55.086693
O       0.000000    -1.029479    -0.291325    55.086694
  
Same information as above printed with atom number.
   1 O      0.000000    -0.000000     0.582650    44.704566
   2 O      0.000000     1.029479    -0.291325    55.086693
   3 O      0.000000    -1.029479    -0.291325    55.086694
