    3
Nonperiodic system
O       0.000000    -0.000000     0.582650    19.469035
O       0.000000     1.029479    -0.291325    23.043434
O       0.000000    -1.029479    -0.291325    23.043434
  
Same information as above printed with atom number.
   1 O      0.000000    -0.000000     0.582650    19.469035
   2 O      0.000000     1.029479    -0.291325    23.043434
   3 O      0.000000    -1.029479    -0.291325    23.043434
