    3
Nonperiodic system
O      0.000000    -0.000000     0.435357     0.357508
O      0.000000     1.096192    -0.217678    -0.178754
O      0.000000    -1.096192    -0.217678    -0.178754
 
 Chargemol version 3.5 September 26, 2017.
See ddec.sourceforge.net for latest version.
 
Computational parameters:
Reference_weighting =      0.214286
Number of radial integration shells =    100
Cutoff radius (pm) =    500
Error in the integrated total number of electrons before renormalization (e) =    6.7413E-11
Charge convergence tolerance =    1.0000E-05
Minimum radius for electron cloud penetration fitting (pm) =    200
Minimum decay exponent for electron density of buried atom tails =   1.7500
Number of iterations to convergence =     24
 
The following XYZ coordinates are in angstroms. The atomic dipoles and quadrupoles are in atomic units.
atom number, atomic symbol, x, y, z, net_charge, dipole_x, dipole_y, dipole_z, dipole_mag, Qxy, Qxz, Qyz,Q(x^2-y^2), Q(3z^2 - R^2), three eigenvalues of traceless quadrupole moment tensor
    1 O      0.000000    -0.000000     0.435357     0.357508     0.000000    -0.000000    -0.240883     0.240883     0.000000    -0.000000     0.000000     0.033001    -0.416270    -0.134621     0.049322     0.085299
    2 O      0.000000     1.096192    -0.217678    -0.178754    -0.000000    -0.067764     0.026130     0.072627     0.000000    -0.000000    -0.205077     0.017082    -0.740709    -0.330725     0.129930     0.200795
    3 O      0.000000    -1.096192    -0.217678    -0.178754    -0.000000     0.067764     0.026130     0.072627    -0.000000    -0.000000     0.205077     0.017082    -0.740709    -0.330725     0.129930     0.200795
 
The sperically averaged electron density of each atom fit to a function of the form exp(a - br) for r >=rmin_cloud_penetration
atom number,atomic symbol, x, y, z, a, b, Rsquared where a and b are in atomic units and Rsquared is the squared correlation coefficient
    1 O      0.000000    -0.000000     0.435357     0.635220     2.474176     0.999465
    2 O      0.000000     1.096192    -0.217678     0.038335     2.200262     0.998605
    3 O      0.000000    -1.096192    -0.217678     0.038366     2.200267     0.998605
 
  
 Since the system is non-periodic, the total dipole and quadrupole moments were computed relative to the system center of mass.
 Multipole moments (in atomic units) using the net atomic charges:
 Partial_charge_dipole_x =    0.0000   Partial_charge_dipole_y =    0.0000   Partial_charge_dipole_z =    0.4412     Partial_charge_dipole_magnitude =    0.4412
 Partial_charge_quadrupole_xy =    0.0000   Partial_charge_quadrupole_xz =    0.0000   Partial_charge_quadrupole_yz =   -0.0000   Partial_charge_quadrupole_x2minusy2 =    1.5341   Partial_charge_quadrupole_3z2minusr2 =    1.8971
 Eigenvalues of traceless quadrupole moment tensor =   -1.0832   0.4509   0.6324
 Multipole moments (in atomic units) using the net atomic charges and atomic dipoles:
 Dipole_x =   -0.0000   Dipole_y =   -0.0000   Dipole_z =    0.2526   Dipole_magnitude =    0.2526
 Quadrupole_xy =   -0.0000   Quadrupole_xz =    0.0000   Quadrupole_yz =   -0.0000   Quadrupole_x2minusy2 =    2.0956   Quadrupole_3z2minusr2 =    1.5799
 Eigenvalues of traceless quadrupole moment tensor =   -1.3111   0.5266   0.7845
 Multipole moments (in atomic units) using the net atomic charges, atomic dipoles, and atomic quadrupoles:
 Dipole_x =   -0.0000   Dipole_y =   -0.0000   Dipole_z =    0.2526   Dipole_magnitude =    0.2526
 Full_quadrupole_xy =    0.0000   Full_quadrupole_xz =    0.0000   Full_quadrupole_yz =    0.0000   Full_quadrupole_x2minusy2 =    2.1628   Full_quadrupole_3z2minusr2 =   -0.3178
 Eigenvalues of traceless quadrupole moment tensor =   -1.0284  -0.1059   1.1344
  
 2017/09/30  19:27:49
