    3
Nonperiodic system
O   -0.000000  -0.000000   0.582650   0.375650
O   -0.000000   1.029479  -0.291325   0.812175
O   -0.000000  -1.029479  -0.291325   0.812175
    
Collinear spin population analysis was performed
The total spin magnetic moment of the unit cell is    2.000000
    
 Chargemol version 3.5 September 26, 2017.
See ddec.sourceforge.net for latest version.
    
Computational parameters:
Spin_ref_fraction = 0.50
Number of radial integration shells = 100
Cutoff radius (pm) =  500
Spin convergence tolerance = 0.000050
Number of iterations to convergence =  7
    
    1 O   -0.000000  -0.000000   0.582650   0.375650
    2 O   -0.000000   1.029479  -0.291325   0.812175
    3 O   -0.000000  -1.029479  -0.291325   0.812175
 2017/10/01  15:13:08
