    3
Nonperiodic system
O     -0.000000    -0.000000     0.582650     0.215330
O     -0.000000     1.029479    -0.291325    -0.107665
O     -0.000000    -1.029479    -0.291325    -0.107665
 
 Chargemol version 3.5 September 26, 2017.
See ddec.sourceforge.net for latest version.
 
Computational parameters:
Number of radial integration shells =    100
Cutoff radius (pm) =    500
Error in the integrated total number of electrons before renormalization (e) =    7.5394E-12
Charge convergence tolerance =    1.0000E-05
Minimum radius for electron cloud penetration fitting (pm) =    200
Minimum decay exponent for electron density of buried atom tails =   1.7500
Maximum decay exponent for electron density of buried atom tails =  2.5000
Number of iterations to convergence =      7
 
The following XYZ coordinates are in angstroms. The atomic dipoles and quadrupoles are in atomic units.
atom number, atomic symbol, x, y, z, net_charge, dipole_x, dipole_y, dipole_z, dipole_mag, Qxy, Qxz, Qyz,Q(x^2-y^2), Q(3z^2 - R^2), three eigenvalues of traceless quadrupole moment tensor
    1 O     -0.000000    -0.000000     0.582650     0.215330     0.000000    -0.000000    -0.214687     0.214687    -0.000000    -0.000000    -0.000000    -0.253359    -0.163831    -0.093946    -0.054786     0.148732
    2 O     -0.000000     1.029479    -0.291325    -0.107665    -0.000000    -0.045530     0.076323     0.088872    -0.000000    -0.000000    -0.105973    -0.344922     0.033472    -0.172599    -0.040587     0.213186
    3 O     -0.000000    -1.029479    -0.291325    -0.107665    -0.000000     0.045530     0.076323     0.088872     0.000000    -0.000000     0.105973    -0.344922     0.033472    -0.172599    -0.040587     0.213186
 
The sperically averaged electron density of each atom fit to a function of the form exp(a - br) for r >=rmin_cloud_penetration
atom number,atomic symbol, x, y, z, a, b, Rsquared where a and b are in atomic units and Rsquared is the squared correlation coefficient
    1 O     -0.000000    -0.000000     0.582650     0.406456     2.399834     0.997523
    2 O     -0.000000     1.029479    -0.291325    -0.274317     2.164011     0.998514
    3 O     -0.000000    -1.029479    -0.291325    -0.274346     2.164005     0.998514
 
  
 Since the system is non-periodic, the total dipole and quadrupole moments were computed relative to the system center of mass.
 Multipole moments (in atomic units) using the net atomic charges:
 Partial_charge_dipole_x =    0.0000   Partial_charge_dipole_y =    0.0000   Partial_charge_dipole_z =    0.3556     Partial_charge_dipole_magnitude =    0.3556
 Partial_charge_quadrupole_xy =    0.0000   Partial_charge_quadrupole_xz =    0.0000   Partial_charge_quadrupole_yz =   -0.0000   Partial_charge_quadrupole_x2minusy2 =    0.8150   Partial_charge_quadrupole_3z2minusr2 =    1.2065
 Eigenvalues of traceless quadrupole moment tensor =   -0.6086   0.2064   0.4022
 Multipole moments (in atomic units) using the net atomic charges and atomic dipoles:
 Dipole_x =   -0.0000   Dipole_y =    0.0000   Dipole_z =    0.2936   Dipole_magnitude =    0.2936
 Quadrupole_xy =   -0.0000   Quadrupole_xz =    0.0000   Quadrupole_yz =   -0.0000   Quadrupole_x2minusy2 =    1.1693   Quadrupole_3z2minusr2 =    0.2792
 Eigenvalues of traceless quadrupole moment tensor =   -0.6312   0.0931   0.5381
 Multipole moments (in atomic units) using the net atomic charges, atomic dipoles, and atomic quadrupoles:
 Dipole_x =   -0.0000   Dipole_y =    0.0000   Dipole_z =    0.2936   Dipole_magnitude =    0.2936
 Full_quadrupole_xy =   -0.0000   Full_quadrupole_xz =    0.0000   Full_quadrupole_yz =   -0.0000   Full_quadrupole_x2minusy2 =    0.2261   Full_quadrupole_3z2minusr2 =    0.1823
 Eigenvalues of traceless quadrupole moment tensor =   -0.1434   0.0608   0.0827
  
 2017/10/01  15:13:01
